/*---------------------------------------------------------------------------*\
| =========                 |                                                 |
| \\      /  F ield         | OpenFOAM: The Open Source CFD Toolbox           |
|  \\    /   O peration     | Version:  1.4                                   |
|   \\  /    A nd           | Web:      http://www.openfoam.org               |
|    \\/     M anipulation  |                                                 |
\*---------------------------------------------------------------------------*/

FoamFile
{
    version         2.0;
    format          ascii;

    root            "";
    case            "";
    instance        "";
    local           "";

    class           dictionary;
    object          blockMeshDict;
}

// * * * * * * * * * * * * * * * * * * * * * * * * * * * * * * * * * * * * * //
convertToMeters 1;

vertices
(
    (-10 0 0)
    (0.5 0 0)
    (-10 10 0)
    (-10 -10 0)
    (11 0 0)
    (11 -10 0)
    (0.5 -10 0)
    (11 10 0)
    (0.5 10 0)
    (0.148635 -0.049945 0)
    (-10 0 0.1)
    (0.5 0 0.1)
    (-10 10 0.1)
    (-10 -10 0.1)
    (11 0 0.1)
    (11 -10 0.1)
    (0.5 -10 0.1)
    (11 10 0.1)
    (0.5 10 0.1)
    (0.148635 -0.049945 0.1)
);

edges
(
);

blocks
(
    hex (13 16 11 10 3 6 1 0) (20 20 1) edgeGrading (1 1 1 1 2 2 2 2 3 3 3 3)
//simpleGrading (0.2 0.2 1)
    hex (16 15 14 11 6 5 4 1) (20 20 1) edgeGrading (1 1 1 1 2 2 2 2 3 3 3 3)
//simpleGrading (5 0.2 1)
    hex (10 11 18 12 0 1 8 2) (20 20 1) edgeGrading (1 1 1 1 2 2 2 2 3 3 3 3)
//simpleGrading (0.2 5 1)
    hex (11 14 17 18 1 4 7 8) (20 20 1) edgeGrading (1 1 1 1 2 2 2 2 3 3 3 3)
//simpleGrading (5 5 1)
);

patches
(
	patch inlet
	(
    		(0 3 13 10)
		(2 0 10 12)
	)

	patch outlet
	(
    		(2 12 18 8)
		(8 18 17 7)
    		(17 14 4 7)
		(14 15 5 4)
    		(13 3 6 16)
		(16 6 5 15)
	)

	empty frontback
	(
    		(12 10 11 18)
		(18 11 14 17)
		(10 13 16 11)
		(11 16 15 14)
    		(7 4 1 8)
		(8 1 0 2)
		(1 6 3 0)
		(4 5 6 1)
	)

);

